RDN_Eindhoven_representative_feeders/OpenDSS/Eindhoven_RDN1.dss
clear
New Circuit.RDN1 basekv=10 pu=1.0
edit Vsource.Source bus1=source basekv=10 pu=1.0001 phases=3 ISC3=9000  ISC1=5000
! Transformer data 
new transformer.22 buses = [Source.1.2.3.0 2572.1.2.3.0] phases=3 windings=2 XHL = 4.0 %LoadLoss=1.0794 Conns=[WYE WYE] kVs=[10.0 0.4] kVAs=[630000.0 630000.0] 
! Linecodes data 
new linecode.powersystem_db_lv_NAYY_4x50_SE nphases=3 
~ rmatrix = [0.642 | 0.0 0.642 | 0.0 0.0 0.642] 
~ xmatrix = [0.083 | 0.0 0.083 | 0.0 0.0 0.083] 
~ cmatrix = [210.0 | 0.0 210.0 | 0.0 0.0 210.0] 
new linecode.powersystem_db_mv_NA2XS2Y_1x120_RM/25_6/10_kV nphases=3 
~ rmatrix = [0.253 | 0.0 0.253 | 0.0 0.0 0.253] 
~ xmatrix = [0.113 | 0.0 0.113 | 0.0 0.0 0.113] 
~ cmatrix = [340.0 | 0.0 340.0 | 0.0 0.0 340.0] 
new linecode.powersystem_db_mv_NA2XS2Y_1x185_RM/25_6/10_kV nphases=3 
~ rmatrix = [0.161 | 0.0 0.161 | 0.0 0.0 0.161] 
~ xmatrix = [0.11 | 0.0 0.11 | 0.0 0.0 0.11] 
~ cmatrix = [406.0 | 0.0 406.0 | 0.0 0.0 406.0] 
new linecode.powersystem_db_lv_NAYY_4x120_SE nphases=3 
~ rmatrix = [0.225 | 0.0 0.225 | 0.0 0.0 0.225] 
~ xmatrix = [0.08 | 0.0 0.08 | 0.0 0.0 0.08] 
~ cmatrix = [264.0 | 0.0 264.0 | 0.0 0.0 264.0] 
new linecode.powersystem_db_mv_NA2XS2Y_1x240_RM/25_6/10_kV nphases=3 
~ rmatrix = [0.122 | 0.0 0.122 | 0.0 0.0 0.122] 
~ xmatrix = [0.105 | 0.0 0.105 | 0.0 0.0 0.105] 
~ cmatrix = [456.0 | 0.0 456.0 | 0.0 0.0 456.0] 
new linecode.powersystem_db_lv_NAYY_4x150_SE nphases=3 
~ rmatrix = [0.208 | 0.0 0.208 | 0.0 0.0 0.208] 
~ xmatrix = [0.08 | 0.0 0.08 | 0.0 0.0 0.08] 
~ cmatrix = [261.0 | 0.0 261.0 | 0.0 0.0 261.0] 
new linecode.powersystem_db_mv_NA2XS2Y_1x95_RM/25_6/10_kV nphases=3 
~ rmatrix = [0.313 | 0.0 0.313 | 0.0 0.0 0.313] 
~ xmatrix = [0.123 | 0.0 0.123 | 0.0 0.0 0.123] 
~ cmatrix = [315.0 | 0.0 315.0 | 0.0 0.0 315.0] 
new linecode.powersystem_db_lv_NA2XY_4x240_SE nphases=3 
~ rmatrix = [0.125 | 0.0 0.125 | 0.0 0.0 0.125] 
~ xmatrix = [0.079 | 0.0 0.079 | 0.0 0.0 0.079] 
~ cmatrix = [0.0 | 0.0 0.0 | 0.0 0.0 0.0] 
new linecode.powersystem_db_mv_NA2XS2Y_1x70_RM/25_6/10_kV nphases=3 
~ rmatrix = [0.443 | 0.0 0.443 | 0.0 0.0 0.443] 
~ xmatrix = [0.123 | 0.0 0.123 | 0.0 0.0 0.123] 
~ cmatrix = [280.0 | 0.0 280.0 | 0.0 0.0 280.0] 
! Lines data 
new line.2102 bus1=491.1.2.3 bus2=2286.1.2.3  phases=3 linecode=powersystem_db_lv_NAYY_4x50_SE length = 0.021360087  
new line.597 bus1=691.1.2.3 bus2=821.1.2.3  phases=3 linecode=powersystem_db_lv_NAYY_4x50_SE length = 0.021165731  
new line.429 bus1=364.1.2.3 bus2=118.1.2.3  phases=3 linecode=powersystem_db_lv_NA2XY_4x240_SE length = 0.038498004  
new line.319 bus1=118.1.2.3 bus2=423.1.2.3  phases=3 linecode=powersystem_db_lv_NAYY_4x50_SE length = 0.066727491  
new line.320 bus1=2572.1.2.3 bus2=612.1.2.3  phases=3 linecode=powersystem_db_lv_NAYY_4x120_SE length = 0.001990261  
new line.324 bus1=502.1.2.3 bus2=691.1.2.3  phases=3 linecode=powersystem_db_lv_NAYY_4x50_SE length = 0.006504769  
new line.2496 bus1=2512.1.2.3 bus2=369.1.2.3  phases=3 linecode=powersystem_db_lv_NAYY_4x120_SE length = 0.011716512  
new line.2377 bus1=1193.1.2.3 bus2=2445.1.2.3  phases=3 linecode=powersystem_db_lv_NA2XY_4x240_SE length = 0.026661536  
new line.460 bus1=2572.1.2.3 bus2=364.1.2.3  phases=3 linecode=powersystem_db_lv_NA2XY_4x240_SE length = 0.134184621  
new line.816 bus1=368.1.2.3 bus2=1193.1.2.3  phases=3 linecode=powersystem_db_lv_NA2XY_4x240_SE length = 0.00984204  
new line.821 bus1=1124.1.2.3 bus2=1198.1.2.3  phases=3 linecode=powersystem_db_lv_NAYY_4x50_SE length = 0.010489547  
new line.2499 bus1=118.1.2.3 bus2=2515.1.2.3  phases=3 linecode=powersystem_db_lv_NAYY_4x120_SE length = 0.022051887  
new line.316 bus1=423.1.2.3 bus2=577.1.2.3  phases=3 linecode=powersystem_db_lv_NAYY_4x50_SE length = 0.05274902  
new line.1850 bus1=1161.1.2.3 bus2=2122.1.2.3  phases=3 linecode=powersystem_db_lv_NA2XY_4x240_SE length = 0.000501363  
new line.1092 bus1=1190.1.2.3 bus2=1526.1.2.3  phases=3 linecode=powersystem_db_lv_NA2XY_4x240_SE length = 0.013728663  
new line.2451 bus1=2485.1.2.3 bus2=1408.1.2.3  phases=3 linecode=powersystem_db_lv_NAYY_4x50_SE length = 0.009399759  
new line.2505 bus1=492.1.2.3 bus2=2518.1.2.3  phases=3 linecode=powersystem_db_lv_NA2XY_4x240_SE length = 0.008369261  
new line.2103 bus1=2286.1.2.3 bus2=1445.1.2.3  phases=3 linecode=powersystem_db_lv_NAYY_4x50_SE length = 0.012310602  
new line.1149 bus1=1586.1.2.3 bus2=1161.1.2.3  phases=3 linecode=powersystem_db_lv_NA2XY_4x240_SE length = 0.011961049  
new line.2430 bus1=2473.1.2.3 bus2=2183.1.2.3  phases=3 linecode=powersystem_db_lv_NA2XY_4x240_SE length = 0.011498333  
new line.2434 bus1=2183.1.2.3 bus2=2476.1.2.3  phases=3 linecode=powersystem_db_lv_NA2XY_4x240_SE length = 0.008935516  
new line.1241 bus1=1027.1.2.3 bus2=1668.1.2.3  phases=3 linecode=powersystem_db_lv_NA2XY_4x240_SE length = 0.017301028  
new line.321 bus1=2572.1.2.3 bus2=329.1.2.3  phases=3 linecode=powersystem_db_lv_NA2XY_4x240_SE length = 0.002186334  
new line.2619 bus1=2572.1.2.3 bus2=612.1.2.3  phases=3 linecode=powersystem_db_lv_NAYY_4x120_SE length = 0.001990261  
new line.371 bus1=2572.1.2.3 bus2=112.1.2.3  phases=3 linecode=powersystem_db_lv_NAYY_4x150_SE length = 0.025478172  
new line.292 bus1=231.1.2.3 bus2=129.1.2.3  phases=3 linecode=powersystem_db_lv_NAYY_4x50_SE length = 0.120898391  
new line.598 bus1=821.1.2.3 bus2=812.1.2.3  phases=3 linecode=powersystem_db_lv_NAYY_4x50_SE length = 0.027811967  
new line.243 bus1=292.1.2.3 bus2=101.1.2.3  phases=3 linecode=powersystem_db_lv_NAYY_4x50_SE length = 0.360090069  
new line.2620 bus1=2572.1.2.3 bus2=612.1.2.3  phases=3 linecode=powersystem_db_lv_NAYY_4x120_SE length = 0.001990261  
new line.290 bus1=492.1.2.3 bus2=491.1.2.3  phases=3 linecode=powersystem_db_lv_NAYY_4x50_SE length = 0.013108934  
new line.415 bus1=2572.1.2.3 bus2=71.1.2.3  phases=3 linecode=powersystem_db_lv_NAYY_4x120_SE length = 0.122218357  
new line.287 bus1=329.1.2.3 bus2=331.1.2.3  phases=3 linecode=powersystem_db_lv_NA2XY_4x240_SE length = 0.041086612  
new line.1667 bus1=1995.1.2.3 bus2=368.1.2.3  phases=3 linecode=powersystem_db_lv_NAYY_4x120_SE length = 0.018453696  
new line.289 bus1=364.1.2.3 bus2=167.1.2.3  phases=3 linecode=powersystem_db_lv_NA2XY_4x240_SE length = 0.045457399  
new line.291 bus1=491.1.2.3 bus2=459.1.2.3  phases=3 linecode=powersystem_db_lv_NAYY_4x50_SE length = 0.026833175  
new line.1668 bus1=369.1.2.3 bus2=1995.1.2.3  phases=3 linecode=powersystem_db_lv_NAYY_4x120_SE length = 0.010719087  
new line.2429 bus1=1526.1.2.3 bus2=2473.1.2.3  phases=3 linecode=powersystem_db_lv_NA2XY_4x240_SE length = 0.001685991  
new line.294 bus1=459.1.2.3 bus2=231.1.2.3  phases=3 linecode=powersystem_db_lv_NAYY_4x50_SE length = 0.064076047  
new line.2452 bus1=368.1.2.3 bus2=2485.1.2.3  phases=3 linecode=powersystem_db_lv_NAYY_4x50_SE length = 0.012844411  
new line.1849 bus1=2122.1.2.3 bus2=1665.1.2.3  phases=3 linecode=powersystem_db_lv_NA2XY_4x240_SE length = 0.011496183  
new line.295 bus1=292.1.2.3 bus2=671.1.2.3  phases=3 linecode=powersystem_db_lv_NAYY_4x50_SE length = 0.011339764  
new line.2617 bus1=2572.1.2.3 bus2=612.1.2.3  phases=3 linecode=powersystem_db_lv_NAYY_4x120_SE length = 0.001990261  
new line.1240 bus1=1668.1.2.3 bus2=1586.1.2.3  phases=3 linecode=powersystem_db_lv_NA2XY_4x240_SE length = 0.015729653  
new line.820 bus1=1198.1.2.3 bus2=292.1.2.3  phases=3 linecode=powersystem_db_lv_NAYY_4x50_SE length = 0.112757103  
new line.2509 bus1=2515.1.2.3 bus2=2521.1.2.3  phases=3 linecode=powersystem_db_lv_NAYY_4x120_SE length = 0.005639679  
new line.323 bus1=328.1.2.3 bus2=502.1.2.3  phases=3 linecode=powersystem_db_lv_NAYY_4x50_SE length = 0.019039075  
new line.2510 bus1=2521.1.2.3 bus2=2512.1.2.3  phases=3 linecode=powersystem_db_lv_NAYY_4x120_SE length = 0.008980833  
new line.2618 bus1=2572.1.2.3 bus2=612.1.2.3  phases=3 linecode=powersystem_db_lv_NAYY_4x120_SE length = 0.001990261  
new line.2435 bus1=2476.1.2.3 bus2=1149.1.2.3  phases=3 linecode=powersystem_db_lv_NA2XY_4x240_SE length = 0.001834346  
new line.492 bus1=612.1.2.3 bus2=119.1.2.3  phases=3 linecode=powersystem_db_lv_NAYY_4x50_SE length = 0.033584776  
new line.2378 bus1=2445.1.2.3 bus2=1589.1.2.3  phases=3 linecode=powersystem_db_lv_NA2XY_4x240_SE length = 0.009801622  
new line.1939 bus1=1149.1.2.3 bus2=2182.1.2.3  phases=3 linecode=powersystem_db_lv_NA2XY_4x240_SE length = 0.014988474  
new line.1153 bus1=1589.1.2.3 bus2=1190.1.2.3  phases=3 linecode=powersystem_db_lv_NA2XY_4x240_SE length = 0.00570001  
new line.585 bus1=612.1.2.3 bus2=806.1.2.3  phases=3 linecode=powersystem_db_lv_NAYY_4x50_SE length = 0.044404803  
new line.288 bus1=331.1.2.3 bus2=492.1.2.3  phases=3 linecode=powersystem_db_lv_NA2XY_4x240_SE length = 0.082551731  
new line.2504 bus1=2518.1.2.3 bus2=1027.1.2.3  phases=3 linecode=powersystem_db_lv_NA2XY_4x240_SE length = 0.020850116  
new line.978 bus1=1408.1.2.3 bus2=1124.1.2.3  phases=3 linecode=powersystem_db_lv_NAYY_4x50_SE length = 0.005570536  
new line.1940 bus1=2182.1.2.3 bus2=1574.1.2.3  phases=3 linecode=powersystem_db_lv_NA2XY_4x240_SE length = 0.005703856  
new line.293 bus1=369.1.2.3 bus2=180.1.2.3  phases=3 linecode=powersystem_db_lv_NAYY_4x50_SE length = 0.003261529  
new line.322 bus1=329.1.2.3 bus2=328.1.2.3  phases=3 linecode=powersystem_db_lv_NAYY_4x50_SE length = 0.001701475  
! Loads data 
new load.772100000279781 bus1=2445.1.0 phases=1 kw=5.91 kvar=1.943 conn=wye kv=0.23 
new load.772100000281690 bus1=1193.1.0 phases=1 kw=5.907 kvar=1.942 conn=wye kv=0.23 
new load.772100000279780 bus1=1190.1.0 phases=1 kw=2.662 kvar=0.875 conn=wye kv=0.23 
new load.772100000936819 bus1=1526.1.0 phases=1 kw=2.672 kvar=0.878 conn=wye kv=0.23 
new load.772100000279774 bus1=2183.1.0 phases=1 kw=2.844 kvar=0.935 conn=wye kv=0.23 
new load.772100000281618 bus1=2518.1.0 phases=1 kw=117.062 kvar=38.476 conn=wye kv=0.23 
new load.2679 bus1=821.1.0 phases=1 kw=10.836 kvar=8.127 conn=wye kv=0.23 
new load.772100000282217 bus1=1586.1.0 phases=1 kw=4.107 kvar=1.35 conn=wye kv=0.23 
new load.1770 bus1=812.1.0 phases=1 kw=6.824 kvar=5.118 conn=wye kv=0.23 
new load.772100000900763 bus1=1589.1.0 phases=1 kw=2.662 kvar=0.875 conn=wye kv=0.23 
new load.772100000900755 bus1=2182.1.0 phases=1 kw=2.674 kvar=0.879 conn=wye kv=0.23 
new load.772100000280437 bus1=1198.1.0 phases=1 kw=6.274 kvar=2.062 conn=wye kv=0.23 
new load.772100000280527 bus1=1408.1.0 phases=1 kw=2.674 kvar=0.879 conn=wye kv=0.23 
new load.772100000281691 bus1=180.1.0 phases=1 kw=2.665 kvar=0.876 conn=wye kv=0.23 
new load.772100000281694 bus1=491.1.0 phases=1 kw=6.625 kvar=2.177 conn=wye kv=0.23 
new load.772100000279775 bus1=1574.1.0 phases=1 kw=2.668 kvar=0.877 conn=wye kv=0.23 
new load.772100001011749 bus1=2521.1.0 phases=1 kw=2.688 kvar=0.884 conn=wye kv=0.23 
new load.772100000936828 bus1=1995.1.0 phases=1 kw=2.657 kvar=0.873 conn=wye kv=0.23 
new load.772100000282634 bus1=1445.1.0 phases=1 kw=2.658 kvar=0.874 conn=wye kv=0.23 
new load.772100000279776 bus1=129.1.0 phases=1 kw=5.921 kvar=1.946 conn=wye kv=0.23 
new load.772100000282657 bus1=1027.1.0 phases=1 kw=4.999 kvar=1.643 conn=wye kv=0.23 
new load.2109 bus1=112.1.0 phases=1 kw=83.988 kvar=62.991 conn=wye kv=0.23 
new load.772100000282216 bus1=1668.1.0 phases=1 kw=3.777 kvar=1.241 conn=wye kv=0.23 
new load.772100000282797 bus1=2122.1.0 phases=1 kw=4.503 kvar=1.48 conn=wye kv=0.23 
new load.772100000281693 bus1=2515.1.0 phases=1 kw=2.669 kvar=0.877 conn=wye kv=0.23 
new load.772100000279773 bus1=2476.1.0 phases=1 kw=3.333 kvar=1.096 conn=wye kv=0.23 
new load.772100000282633 bus1=167.1.0 phases=1 kw=5.905 kvar=1.941 conn=wye kv=0.23 
new load.772100000900660 bus1=1149.1.0 phases=1 kw=3.143 kvar=1.033 conn=wye kv=0.23 
new load.303 bus1=71.1.0 phases=1 kw=8.188 kvar=6.141 conn=wye kv=0.23 
new load.772100000281222 bus1=1665.1.0 phases=1 kw=5.751 kvar=1.89 conn=wye kv=0.23 
new load.772100000281376 bus1=118.1.0 phases=1 kw=6.488 kvar=2.132 conn=wye kv=0.23 
new load.772100000281692 bus1=2512.1.0 phases=1 kw=2.662 kvar=0.875 conn=wye kv=0.23 
new load.1786 bus1=119.1.0 phases=1 kw=41.685 kvar=31.264 conn=wye kv=0.23 
new load.772100000282635 bus1=2286.1.0 phases=1 kw=5.895 kvar=1.938 conn=wye kv=0.23 
new load.946 bus1=806.1.0 phases=1 kw=5.568 kvar=4.175 conn=wye kv=0.23 
new load.772100000282796 bus1=1161.1.0 phases=1 kw=4.401 kvar=1.446 conn=wye kv=0.23 
new load.772100000280528 bus1=2485.1.0 phases=1 kw=6.46 kvar=2.123 conn=wye kv=0.23 
new load.772100000936836 bus1=1124.1.0 phases=1 kw=2.655 kvar=0.873 conn=wye kv=0.23 
new load.772100000279778 bus1=2473.1.0 phases=1 kw=3.367 kvar=1.107 conn=wye kv=0.23 
new load.772100000281841 bus1=577.1.0 phases=1 kw=4.541 kvar=1.493 conn=wye kv=0.23 
solve
